CM Length L in mtr. = 12
CM Radius R1 in cm. = 10
CM Radius R2 in cm. = 10
CM Number of turns = 120
CM Segments per turn = 16
CM Rotate X, Y, Z = 0, 0, 0
CM Move X, Y, Z = 0, 0, 0
CE
GW     1    1       .0       .0       .0       .1       .0       .0     .005
GW     2    1       .1       .0       .0  .092388  .038268   .00625     .005
GW     3    1  .092388  .038268   .00625  .070711  .070711    .0125     .005
GW     4    1  .070711  .070711    .0125  .038268  .092388   .01875     .005
GW     5    1  .038268  .092388   .01875       .0       .1     .025     .005
GW     6    1       .0       .1     .025 -.038268  .092388   .03125     .005
GW     7    1 -.038268  .092388   .03125 -.070711  .070711    .0375     .005
GW     8    1 -.070711  .070711    .0375 -.092388  .038268   .04375     .005
GW     9    1 -.092388  .038268   .04375      -.1       .0      .05     .005
GW    10    1      -.1       .0      .05 -.092388 -.038268   .05625     .005
GW    11    1 -.092388 -.038268   .05625 -.070711 -.070711    .0625     .005
GW    12    1 -.070711 -.070711    .0625 -.038268 -.092388   .06875     .005
GW    13    1 -.038268 -.092388   .06875       .0      -.1     .075     .005
GW    14    1       .0      -.1     .075  .038268 -.092388   .08125     .005
GW    15    1  .038268 -.092388   .08125  .070711 -.070711    .0875     .005
GW    16    1  .070711 -.070711    .0875  .092388 -.038268   .09375     .005
GW    17    1  .092388 -.038268   .09375       .1       .0       .1     .005
GW    18    1       .1       .0       .1  .092388  .038268   .10625     .005
GW    19    1  .092388  .038268   .10625  .070711  .070711    .1125     .005
GW    20    1  .070711  .070711    .1125  .038268  .092388   .11875     .005
GW    21    1  .038268  .092388   .11875       .0       .1     .125     .005
GW    22    1       .0       .1     .125 -.038268  .092388   .13125     .005
GW    23    1 -.038268  .092388   .13125 -.070711  .070711    .1375     .005
GW    24    1 -.070711  .070711    .1375 -.092388  .038268   .14375     .005
GW    25    1 -.092388  .038268   .14375      -.1       .0      .15     .005
GW    26    1      -.1       .0      .15 -.092388 -.038268   .15625     .005
GW    27    1 -.092388 -.038268   .15625 -.070711 -.070711    .1625     .005
GW    28    1 -.070711 -.070711    .1625 -.038268 -.092388   .16875     .005
GW    29    1 -.038268 -.092388   .16875       .0      -.1     .175     .005
GW    30    1       .0      -.1     .175  .038268 -.092388   .18125     .005
GW    31    1  .038268 -.092388   .18125  .070711 -.070711    .1875     .005
GW    32    1  .070711 -.070711    .1875  .092388 -.038268   .19375     .005
GW    33    1  .092388 -.038268   .19375       .1       .0       .2     .005
GW    34    1       .1       .0       .2  .092388  .038268   .20625     .005
GW    35    1  .092388  .038268   .20625  .070711  .070711    .2125     .005
GW    36    1  .070711  .070711    .2125  .038268  .092388   .21875     .005
GW    37    1  .038268  .092388   .21875       .0       .1     .225     .005
GW    38    1       .0       .1     .225 -.038268  .092388   .23125     .005
GW    39    1 -.038268  .092388   .23125 -.070711  .070711    .2375     .005
GW    40    1 -.070711  .070711    .2375 -.092388  .038268   .24375     .005
GW    41    1 -.092388  .038268   .24375      -.1       .0      .25     .005
GW    42    1      -.1       .0      .25 -.092388 -.038268   .25625     .005
GW    43    1 -.092388 -.038268   .25625 -.070711 -.070711    .2625     .005
GW    44    1 -.070711 -.070711    .2625 -.038268 -.092388   .26875     .005
GW    45    1 -.038268 -.092388   .26875       .0      -.1     .275     .005
GW    46    1       .0      -.1     .275  .038268 -.092388   .28125     .005
GW    47    1  .038268 -.092388   .28125  .070711 -.070711    .2875     .005
GW    48    1  .070711 -.070711    .2875  .092388 -.038268   .29375     .005
GW    49    1  .092388 -.038268   .29375       .1       .0       .3     .005
GW    50    1       .1       .0       .3  .092388  .038268   .30625     .005
GW    51    1  .092388  .038268   .30625  .070711  .070711    .3125     .005
GW    52    1  .070711  .070711    .3125  .038268  .092388   .31875     .005
GW    53    1  .038268  .092388   .31875       .0       .1     .325     .005
GW    54    1       .0       .1     .325 -.038268  .092388   .33125     .005
GW    55    1 -.038268  .092388   .33125 -.070711  .070711    .3375     .005
GW    56    1 -.070711  .070711    .3375 -.092388  .038268   .34375     .005
GW    57    1 -.092388  .038268   .34375      -.1       .0      .35     .005
GW    58    1      -.1       .0      .35 -.092388 -.038268   .35625     .005
GW    59    1 -.092388 -.038268   .35625 -.070711 -.070711    .3625     .005
GW    60    1 -.070711 -.070711    .3625 -.038268 -.092388   .36875     .005
GW    61    1 -.038268 -.092388   .36875       .0      -.1     .375     .005
GW    62    1       .0      -.1     .375  .038268 -.092388   .38125     .005
GW    63    1  .038268 -.092388   .38125  .070711 -.070711    .3875     .005
GW    64    1  .070711 -.070711    .3875  .092388 -.038268   .39375     .005
GW    65    1  .092388 -.038268   .39375       .1       .0       .4     .005
GW    66    1       .1       .0       .4  .092388  .038268   .40625     .005
GW    67    1  .092388  .038268   .40625  .070711  .070711    .4125     .005
GW    68    1  .070711  .070711    .4125  .038268  .092388   .41875     .005
GW    69    1  .038268  .092388   .41875       .0       .1     .425     .005
GW    70    1       .0       .1     .425 -.038268  .092388   .43125     .005
GW    71    1 -.038268  .092388   .43125 -.070711  .070711    .4375     .005
GW    72    1 -.070711  .070711    .4375 -.092388  .038268   .44375     .005
GW    73    1 -.092388  .038268   .44375      -.1       .0      .45     .005
GW    74    1      -.1       .0      .45 -.092388 -.038268   .45625     .005
GW    75    1 -.092388 -.038268   .45625 -.070711 -.070711    .4625     .005
GW    76    1 -.070711 -.070711    .4625 -.038268 -.092388   .46875     .005
GW    77    1 -.038268 -.092388   .46875       .0      -.1     .475     .005
GW    78    1       .0      -.1     .475  .038268 -.092388   .48125     .005
GW    79    1  .038268 -.092388   .48125  .070711 -.070711    .4875     .005
GW    80    1  .070711 -.070711    .4875  .092388 -.038268   .49375     .005
GW    81    1  .092388 -.038268   .49375       .1       .0       .5     .005
GW    82    1       .1       .0       .5  .092388  .038268   .50625     .005
GW    83    1  .092388  .038268   .50625  .070711  .070711    .5125     .005
GW    84    1  .070711  .070711    .5125  .038268  .092388   .51875     .005
GW    85    1  .038268  .092388   .51875       .0       .1     .525     .005
GW    86    1       .0       .1     .525 -.038268  .092388   .53125     .005
GW    87    1 -.038268  .092388   .53125 -.070711  .070711    .5375     .005
GW    88    1 -.070711  .070711    .5375 -.092388  .038268   .54375     .005
GW    89    1 -.092388  .038268   .54375      -.1       .0      .55     .005
GW    90    1      -.1       .0      .55 -.092388 -.038268   .55625     .005
GW    91    1 -.092388 -.038268   .55625 -.070711 -.070711    .5625     .005
GW    92    1 -.070711 -.070711    .5625 -.038268 -.092388   .56875     .005
GW    93    1 -.038268 -.092388   .56875       .0      -.1     .575     .005
GW    94    1       .0      -.1     .575  .038268 -.092388   .58125     .005
GW    95    1  .038268 -.092388   .58125  .070711 -.070711    .5875     .005
GW    96    1  .070711 -.070711    .5875  .092388 -.038268   .59375     .005
GW    97    1  .092388 -.038268   .59375       .1       .0       .6     .005
GW    98    1       .1       .0       .6  .092388  .038268   .60625     .005
GW    99    1  .092388  .038268   .60625  .070711  .070711    .6125     .005
GW   100    1  .070711  .070711    .6125  .038268  .092388   .61875     .005
GW   101    1  .038268  .092388   .61875       .0       .1     .625     .005
GW   102    1       .0       .1     .625 -.038268  .092388   .63125     .005
GW   103    1 -.038268  .092388   .63125 -.070711  .070711    .6375     .005
GW   104    1 -.070711  .070711    .6375 -.092388  .038268   .64375     .005
GW   105    1 -.092388  .038268   .64375      -.1       .0      .65     .005
GW   106    1      -.1       .0      .65 -.092388 -.038268   .65625     .005
GW   107    1 -.092388 -.038268   .65625 -.070711 -.070711    .6625     .005
GW   108    1 -.070711 -.070711    .6625 -.038268 -.092388   .66875     .005
GW   109    1 -.038268 -.092388   .66875       .0      -.1     .675     .005
GW   110    1       .0      -.1     .675  .038268 -.092388   .68125     .005
GW   111    1  .038268 -.092388   .68125  .070711 -.070711    .6875     .005
GW   112    1  .070711 -.070711    .6875  .092388 -.038268   .69375     .005
GW   113    1  .092388 -.038268   .69375       .1       .0       .7     .005
GW   114    1       .1       .0       .7  .092388  .038268   .70625     .005
GW   115    1  .092388  .038268   .70625  .070711  .070711    .7125     .005
GW   116    1  .070711  .070711    .7125  .038268  .092388   .71875     .005
GW   117    1  .038268  .092388   .71875       .0       .1     .725     .005
GW   118    1       .0       .1     .725 -.038268  .092388   .73125     .005
GW   119    1 -.038268  .092388   .73125 -.070711  .070711    .7375     .005
GW   120    1 -.070711  .070711    .7375 -.092388  .038268   .74375     .005
GW   121    1 -.092388  .038268   .74375      -.1       .0      .75     .005
GW   122    1      -.1       .0      .75 -.092388 -.038268   .75625     .005
GW   123    1 -.092388 -.038268   .75625 -.070711 -.070711    .7625     .005
GW   124    1 -.070711 -.070711    .7625 -.038268 -.092388   .76875     .005
GW   125    1 -.038268 -.092388   .76875       .0      -.1     .775     .005
GW   126    1       .0      -.1     .775  .038268 -.092388   .78125     .005
GW   127    1  .038268 -.092388   .78125  .070711 -.070711    .7875     .005
GW   128    1  .070711 -.070711    .7875  .092388 -.038268   .79375     .005
GW   129    1  .092388 -.038268   .79375       .1       .0       .8     .005
GW   130    1       .1       .0       .8  .092388  .038268   .80625     .005
GW   131    1  .092388  .038268   .80625  .070711  .070711    .8125     .005
GW   132    1  .070711  .070711    .8125  .038268  .092388   .81875     .005
GW   133    1  .038268  .092388   .81875       .0       .1     .825     .005
GW   134    1       .0       .1     .825 -.038268  .092388   .83125     .005
GW   135    1 -.038268  .092388   .83125 -.070711  .070711    .8375     .005
GW   136    1 -.070711  .070711    .8375 -.092388  .038268   .84375     .005
GW   137    1 -.092388  .038268   .84375      -.1       .0      .85     .005
GW   138    1      -.1       .0      .85 -.092388 -.038268   .85625     .005
GW   139    1 -.092388 -.038268   .85625 -.070711 -.070711    .8625     .005
GW   140    1 -.070711 -.070711    .8625 -.038268 -.092388   .86875     .005
GW   141    1 -.038268 -.092388   .86875       .0      -.1     .875     .005
GW   142    1       .0      -.1     .875  .038268 -.092388   .88125     .005
GW   143    1  .038268 -.092388   .88125  .070711 -.070711    .8875     .005
GW   144    1  .070711 -.070711    .8875  .092388 -.038268   .89375     .005
GW   145    1  .092388 -.038268   .89375       .1       .0       .9     .005
GW   146    1       .1       .0       .9  .092388  .038268   .90625     .005
GW   147    1  .092388  .038268   .90625  .070711  .070711    .9125     .005
GW   148    1  .070711  .070711    .9125  .038268  .092388   .91875     .005
GW   149    1  .038268  .092388   .91875       .0       .1     .925     .005
GW   150    1       .0       .1     .925 -.038268  .092388   .93125     .005
GW   151    1 -.038268  .092388   .93125 -.070711  .070711    .9375     .005
GW   152    1 -.070711  .070711    .9375 -.092388  .038268   .94375     .005
GW   153    1 -.092388  .038268   .94375      -.1       .0      .95     .005
GW   154    1      -.1       .0      .95 -.092388 -.038268   .95625     .005
GW   155    1 -.092388 -.038268   .95625 -.070711 -.070711    .9625     .005
GW   156    1 -.070711 -.070711    .9625 -.038268 -.092388   .96875     .005
GW   157    1 -.038268 -.092388   .96875       .0      -.1     .975     .005
GW   158    1       .0      -.1     .975  .038268 -.092388   .98125     .005
GW   159    1  .038268 -.092388   .98125  .070711 -.070711    .9875     .005
GW   160    1  .070711 -.070711    .9875  .092388 -.038268   .99375     .005
GW   161    1  .092388 -.038268   .99375       .1       .0      1.0     .005
GW   162    1       .1       .0      1.0  .092388  .038268    1.006     .005
GW   163    1  .092388  .038268    1.006  .070711  .070711    1.013     .005
GW   164    1  .070711  .070711    1.013  .038268  .092388    1.019     .005
GW   165    1  .038268  .092388    1.019       .0       .1    1.025     .005
GW   166    1       .0       .1    1.025 -.038268  .092388    1.031     .005
GW   167    1 -.038268  .092388    1.031 -.070711  .070711    1.038     .005
GW   168    1 -.070711  .070711    1.038 -.092388  .038268    1.044     .005
GW   169    1 -.092388  .038268    1.044      -.1       .0     1.05     .005
GW   170    1      -.1       .0     1.05 -.092388 -.038268    1.056     .005
GW   171    1 -.092388 -.038268    1.056 -.070711 -.070711    1.063     .005
GW   172    1 -.070711 -.070711    1.063 -.038268 -.092388    1.069     .005
GW   173    1 -.038268 -.092388    1.069       .0      -.1    1.075     .005
GW   174    1       .0      -.1    1.075  .038268 -.092388    1.081     .005
GW   175    1  .038268 -.092388    1.081  .070711 -.070711    1.088     .005
GW   176    1  .070711 -.070711    1.088  .092388 -.038268    1.094     .005
GW   177    1  .092388 -.038268    1.094       .1       .0      1.1     .005
GW   178    1       .1       .0      1.1  .092388  .038268    1.106     .005
GW   179    1  .092388  .038268    1.106  .070711  .070711    1.113     .005
GW   180    1  .070711  .070711    1.113  .038268  .092388    1.119     .005
GW   181    1  .038268  .092388    1.119       .0       .1    1.125     .005
GW   182    1       .0       .1    1.125 -.038268  .092388    1.131     .005
GW   183    1 -.038268  .092388    1.131 -.070711  .070711    1.138     .005
GW   184    1 -.070711  .070711    1.138 -.092388  .038268    1.144     .005
GW   185    1 -.092388  .038268    1.144      -.1       .0     1.15     .005
GW   186    1      -.1       .0     1.15 -.092388 -.038268    1.156     .005
GW   187    1 -.092388 -.038268    1.156 -.070711 -.070711    1.163     .005
GW   188    1 -.070711 -.070711    1.163 -.038268 -.092388    1.169     .005
GW   189    1 -.038268 -.092388    1.169       .0      -.1    1.175     .005
GW   190    1       .0      -.1    1.175  .038268 -.092388    1.181     .005
GW   191    1  .038268 -.092388    1.181  .070711 -.070711    1.188     .005
GW   192    1  .070711 -.070711    1.188  .092388 -.038268    1.194     .005
GW   193    1  .092388 -.038268    1.194       .1       .0      1.2     .005
GW   194    1       .1       .0      1.2  .092388  .038268    1.206     .005
GW   195    1  .092388  .038268    1.206  .070711  .070711    1.213     .005
GW   196    1  .070711  .070711    1.213  .038268  .092388    1.219     .005
GW   197    1  .038268  .092388    1.219       .0       .1    1.225     .005
GW   198    1       .0       .1    1.225 -.038268  .092388    1.231     .005
GW   199    1 -.038268  .092388    1.231 -.070711  .070711    1.238     .005
GW   200    1 -.070711  .070711    1.238 -.092388  .038268    1.244     .005
GW   201    1 -.092388  .038268    1.244      -.1       .0     1.25     .005
GW   202    1      -.1       .0     1.25 -.092388 -.038268    1.256     .005
GW   203    1 -.092388 -.038268    1.256 -.070711 -.070711    1.263     .005
GW   204    1 -.070711 -.070711    1.263 -.038268 -.092388    1.269     .005
GW   205    1 -.038268 -.092388    1.269       .0      -.1    1.275     .005
GW   206    1       .0      -.1    1.275  .038268 -.092388    1.281     .005
GW   207    1  .038268 -.092388    1.281  .070711 -.070711    1.288     .005
GW   208    1  .070711 -.070711    1.288  .092388 -.038268    1.294     .005
GW   209    1  .092388 -.038268    1.294       .1       .0      1.3     .005
GW   210    1       .1       .0      1.3  .092388  .038268    1.306     .005
GW   211    1  .092388  .038268    1.306  .070711  .070711    1.313     .005
GW   212    1  .070711  .070711    1.313  .038268  .092388    1.319     .005
GW   213    1  .038268  .092388    1.319       .0       .1    1.325     .005
GW   214    1       .0       .1    1.325 -.038268  .092388    1.331     .005
GW   215    1 -.038268  .092388    1.331 -.070711  .070711    1.338     .005
GW   216    1 -.070711  .070711    1.338 -.092388  .038268    1.344     .005
GW   217    1 -.092388  .038268    1.344      -.1       .0     1.35     .005
GW   218    1      -.1       .0     1.35 -.092388 -.038268    1.356     .005
GW   219    1 -.092388 -.038268    1.356 -.070711 -.070711    1.363     .005
GW   220    1 -.070711 -.070711    1.363 -.038268 -.092388    1.369     .005
GW   221    1 -.038268 -.092388    1.369       .0      -.1    1.375     .005
GW   222    1       .0      -.1    1.375  .038268 -.092388    1.381     .005
GW   223    1  .038268 -.092388    1.381  .070711 -.070711    1.388     .005
GW   224    1  .070711 -.070711    1.388  .092388 -.038268    1.394     .005
GW   225    1  .092388 -.038268    1.394       .1       .0      1.4     .005
GW   226    1       .1       .0      1.4  .092388  .038268    1.406     .005
GW   227    1  .092388  .038268    1.406  .070711  .070711    1.413     .005
GW   228    1  .070711  .070711    1.413  .038268  .092388    1.419     .005
GW   229    1  .038268  .092388    1.419       .0       .1    1.425     .005
GW   230    1       .0       .1    1.425 -.038268  .092388    1.431     .005
GW   231    1 -.038268  .092388    1.431 -.070711  .070711    1.438     .005
GW   232    1 -.070711  .070711    1.438 -.092388  .038268    1.444     .005
GW   233    1 -.092388  .038268    1.444      -.1       .0     1.45     .005
GW   234    1      -.1       .0     1.45 -.092388 -.038268    1.456     .005
GW   235    1 -.092388 -.038268    1.456 -.070711 -.070711    1.463     .005
GW   236    1 -.070711 -.070711    1.463 -.038268 -.092388    1.469     .005
GW   237    1 -.038268 -.092388    1.469       .0      -.1    1.475     .005
GW   238    1       .0      -.1    1.475  .038268 -.092388    1.481     .005
GW   239    1  .038268 -.092388    1.481  .070711 -.070711    1.488     .005
GW   240    1  .070711 -.070711    1.488  .092388 -.038268    1.494     .005
GW   241    1  .092388 -.038268    1.494       .1       .0      1.5     .005
GW   242    1       .1       .0      1.5  .092388  .038268    1.506     .005
GW   243    1  .092388  .038268    1.506  .070711  .070711    1.513     .005
GW   244    1  .070711  .070711    1.513  .038268  .092388    1.519     .005
GW   245    1  .038268  .092388    1.519       .0       .1    1.525     .005
GW   246    1       .0       .1    1.525 -.038268  .092388    1.531     .005
GW   247    1 -.038268  .092388    1.531 -.070711  .070711    1.538     .005
GW   248    1 -.070711  .070711    1.538 -.092388  .038268    1.544     .005
GW   249    1 -.092388  .038268    1.544      -.1       .0     1.55     .005
GW   250    1      -.1       .0     1.55 -.092388 -.038268    1.556     .005
GW   251    1 -.092388 -.038268    1.556 -.070711 -.070711    1.563     .005
GW   252    1 -.070711 -.070711    1.563 -.038268 -.092388    1.569     .005
GW   253    1 -.038268 -.092388    1.569       .0      -.1    1.575     .005
GW   254    1       .0      -.1    1.575  .038268 -.092388    1.581     .005
GW   255    1  .038268 -.092388    1.581  .070711 -.070711    1.588     .005
GW   256    1  .070711 -.070711    1.588  .092388 -.038268    1.594     .005
GW   257    1  .092388 -.038268    1.594       .1       .0      1.6     .005
GW   258    1       .1       .0      1.6  .092388  .038268    1.606     .005
GW   259    1  .092388  .038268    1.606  .070711  .070711    1.613     .005
GW   260    1  .070711  .070711    1.613  .038268  .092388    1.619     .005
GW   261    1  .038268  .092388    1.619       .0       .1    1.625     .005
GW   262    1       .0       .1    1.625 -.038268  .092388    1.631     .005
GW   263    1 -.038268  .092388    1.631 -.070711  .070711    1.638     .005
GW   264    1 -.070711  .070711    1.638 -.092388  .038268    1.644     .005
GW   265    1 -.092388  .038268    1.644      -.1       .0     1.65     .005
GW   266    1      -.1       .0     1.65 -.092388 -.038268    1.656     .005
GW   267    1 -.092388 -.038268    1.656 -.070711 -.070711    1.663     .005
GW   268    1 -.070711 -.070711    1.663 -.038268 -.092388    1.669     .005
GW   269    1 -.038268 -.092388    1.669       .0      -.1    1.675     .005
GW   270    1       .0      -.1    1.675  .038268 -.092388    1.681     .005
GW   271    1  .038268 -.092388    1.681  .070711 -.070711    1.688     .005
GW   272    1  .070711 -.070711    1.688  .092388 -.038268    1.694     .005
GW   273    1  .092388 -.038268    1.694       .1       .0      1.7     .005
GW   274    1       .1       .0      1.7  .092388  .038268    1.706     .005
GW   275    1  .092388  .038268    1.706  .070711  .070711    1.713     .005
GW   276    1  .070711  .070711    1.713  .038268  .092388    1.719     .005
GW   277    1  .038268  .092388    1.719       .0       .1    1.725     .005
GW   278    1       .0       .1    1.725 -.038268  .092388    1.731     .005
GW   279    1 -.038268  .092388    1.731 -.070711  .070711    1.738     .005
GW   280    1 -.070711  .070711    1.738 -.092388  .038268    1.744     .005
GW   281    1 -.092388  .038268    1.744      -.1       .0     1.75     .005
GW   282    1      -.1       .0     1.75 -.092388 -.038268    1.756     .005
GW   283    1 -.092388 -.038268    1.756 -.070711 -.070711    1.763     .005
GW   284    1 -.070711 -.070711    1.763 -.038268 -.092388    1.769     .005
GW   285    1 -.038268 -.092388    1.769       .0      -.1    1.775     .005
GW   286    1       .0      -.1    1.775  .038268 -.092388    1.781     .005
GW   287    1  .038268 -.092388    1.781  .070711 -.070711    1.788     .005
GW   288    1  .070711 -.070711    1.788  .092388 -.038268    1.794     .005
GW   289    1  .092388 -.038268    1.794       .1       .0      1.8     .005
GW   290    1       .1       .0      1.8  .092388  .038268    1.806     .005
GW   291    1  .092388  .038268    1.806  .070711  .070711    1.813     .005
GW   292    1  .070711  .070711    1.813  .038268  .092388    1.819     .005
GW   293    1  .038268  .092388    1.819       .0       .1    1.825     .005
GW   294    1       .0       .1    1.825 -.038268  .092388    1.831     .005
GW   295    1 -.038268  .092388    1.831 -.070711  .070711    1.838     .005
GW   296    1 -.070711  .070711    1.838 -.092388  .038268    1.844     .005
GW   297    1 -.092388  .038268    1.844      -.1       .0     1.85     .005
GW   298    1      -.1       .0     1.85 -.092388 -.038268    1.856     .005
GW   299    1 -.092388 -.038268    1.856 -.070711 -.070711    1.863     .005
GW   300    1 -.070711 -.070711    1.863 -.038268 -.092388    1.869     .005
GW   301    1 -.038268 -.092388    1.869       .0      -.1    1.875     .005
GW   302    1       .0      -.1    1.875  .038268 -.092388    1.881     .005
GW   303    1  .038268 -.092388    1.881  .070711 -.070711    1.888     .005
GW   304    1  .070711 -.070711    1.888  .092388 -.038268    1.894     .005
GW   305    1  .092388 -.038268    1.894       .1       .0      1.9     .005
GW   306    1       .1       .0      1.9  .092388  .038268    1.906     .005
GW   307    1  .092388  .038268    1.906  .070711  .070711    1.913     .005
GW   308    1  .070711  .070711    1.913  .038268  .092388    1.919     .005
GW   309    1  .038268  .092388    1.919       .0       .1    1.925     .005
GW   310    1       .0       .1    1.925 -.038268  .092388    1.931     .005
GW   311    1 -.038268  .092388    1.931 -.070711  .070711    1.938     .005
GW   312    1 -.070711  .070711    1.938 -.092388  .038268    1.944     .005
GW   313    1 -.092388  .038268    1.944      -.1       .0     1.95     .005
GW   314    1      -.1       .0     1.95 -.092388 -.038268    1.956     .005
GW   315    1 -.092388 -.038268    1.956 -.070711 -.070711    1.963     .005
GW   316    1 -.070711 -.070711    1.963 -.038268 -.092388    1.969     .005
GW   317    1 -.038268 -.092388    1.969       .0      -.1    1.975     .005
GW   318    1       .0      -.1    1.975  .038268 -.092388    1.981     .005
GW   319    1  .038268 -.092388    1.981  .070711 -.070711    1.988     .005
GW   320    1  .070711 -.070711    1.988  .092388 -.038268    1.994     .005
GW   321    1  .092388 -.038268    1.994       .1       .0      2.0     .005
GW   322    1       .1       .0      2.0  .092388  .038268    2.006     .005
GW   323    1  .092388  .038268    2.006  .070711  .070711    2.013     .005
GW   324    1  .070711  .070711    2.013  .038268  .092388    2.019     .005
GW   325    1  .038268  .092388    2.019       .0       .1    2.025     .005
GW   326    1       .0       .1    2.025 -.038268  .092388    2.031     .005
GW   327    1 -.038268  .092388    2.031 -.070711  .070711    2.038     .005
GW   328    1 -.070711  .070711    2.038 -.092388  .038268    2.044     .005
GW   329    1 -.092388  .038268    2.044      -.1       .0     2.05     .005
GW   330    1      -.1       .0     2.05 -.092388 -.038268    2.056     .005
GW   331    1 -.092388 -.038268    2.056 -.070711 -.070711    2.063     .005
GW   332    1 -.070711 -.070711    2.063 -.038268 -.092388    2.069     .005
GW   333    1 -.038268 -.092388    2.069       .0      -.1    2.075     .005
GW   334    1       .0      -.1    2.075  .038268 -.092388    2.081     .005
GW   335    1  .038268 -.092388    2.081  .070711 -.070711    2.088     .005
GW   336    1  .070711 -.070711    2.088  .092388 -.038268    2.094     .005
GW   337    1  .092388 -.038268    2.094       .1       .0      2.1     .005
GW   338    1       .1       .0      2.1  .092388  .038268    2.106     .005
GW   339    1  .092388  .038268    2.106  .070711  .070711    2.113     .005
GW   340    1  .070711  .070711    2.113  .038268  .092388    2.119     .005
GW   341    1  .038268  .092388    2.119       .0       .1    2.125     .005
GW   342    1       .0       .1    2.125 -.038268  .092388    2.131     .005
GW   343    1 -.038268  .092388    2.131 -.070711  .070711    2.138     .005
GW   344    1 -.070711  .070711    2.138 -.092388  .038268    2.144     .005
GW   345    1 -.092388  .038268    2.144      -.1       .0     2.15     .005
GW   346    1      -.1       .0     2.15 -.092388 -.038268    2.156     .005
GW   347    1 -.092388 -.038268    2.156 -.070711 -.070711    2.163     .005
GW   348    1 -.070711 -.070711    2.163 -.038268 -.092388    2.169     .005
GW   349    1 -.038268 -.092388    2.169       .0      -.1    2.175     .005
GW   350    1       .0      -.1    2.175  .038268 -.092388    2.181     .005
GW   351    1  .038268 -.092388    2.181  .070711 -.070711    2.188     .005
GW   352    1  .070711 -.070711    2.188  .092388 -.038268    2.194     .005
GW   353    1  .092388 -.038268    2.194       .1       .0      2.2     .005
GW   354    1       .1       .0      2.2  .092388  .038268    2.206     .005
GW   355    1  .092388  .038268    2.206  .070711  .070711    2.213     .005
GW   356    1  .070711  .070711    2.213  .038268  .092388    2.219     .005
GW   357    1  .038268  .092388    2.219       .0       .1    2.225     .005
GW   358    1       .0       .1    2.225 -.038268  .092388    2.231     .005
GW   359    1 -.038268  .092388    2.231 -.070711  .070711    2.238     .005
GW   360    1 -.070711  .070711    2.238 -.092388  .038268    2.244     .005
GW   361    1 -.092388  .038268    2.244      -.1       .0     2.25     .005
GW   362    1      -.1       .0     2.25 -.092388 -.038268    2.256     .005
GW   363    1 -.092388 -.038268    2.256 -.070711 -.070711    2.263     .005
GW   364    1 -.070711 -.070711    2.263 -.038268 -.092388    2.269     .005
GW   365    1 -.038268 -.092388    2.269       .0      -.1    2.275     .005
GW   366    1       .0      -.1    2.275  .038268 -.092388    2.281     .005
GW   367    1  .038268 -.092388    2.281  .070711 -.070711    2.288     .005
GW   368    1  .070711 -.070711    2.288  .092388 -.038268    2.294     .005
GW   369    1  .092388 -.038268    2.294       .1       .0      2.3     .005
GW   370    1       .1       .0      2.3  .092388  .038268    2.306     .005
GW   371    1  .092388  .038268    2.306  .070711  .070711    2.313     .005
GW   372    1  .070711  .070711    2.313  .038268  .092388    2.319     .005
GW   373    1  .038268  .092388    2.319       .0       .1    2.325     .005
GW   374    1       .0       .1    2.325 -.038268  .092388    2.331     .005
GW   375    1 -.038268  .092388    2.331 -.070711  .070711    2.338     .005
GW   376    1 -.070711  .070711    2.338 -.092388  .038268    2.344     .005
GW   377    1 -.092388  .038268    2.344      -.1       .0     2.35     .005
GW   378    1      -.1       .0     2.35 -.092388 -.038268    2.356     .005
GW   379    1 -.092388 -.038268    2.356 -.070711 -.070711    2.363     .005
GW   380    1 -.070711 -.070711    2.363 -.038268 -.092388    2.369     .005
GW   381    1 -.038268 -.092388    2.369       .0      -.1    2.375     .005
GW   382    1       .0      -.1    2.375  .038268 -.092388    2.381     .005