CM Length L in mtr. = 12
CM Radius R1 in cm. = 10
CM Radius R2 in cm. = 10
CM Number of turns = 120
CM Segments per turn = 16
CM Rotate X, Y, Z = 0, 0, 0
CM Move X, Y, Z = 0, 0, 0
CE 
GW     1     1   0.00000E+00  0.00000E+00  0.00000E+00  1.00000E-01  0.00000E+00  0.00000E+00  5.00000E-03
GW     2     1   1.00000E-01  0.00000E+00  0.00000E+00  9.23880E-02  3.82680E-02  6.25000E-03  5.00000E-03
GW     3     1   9.23880E-02  3.82680E-02  6.25000E-03  7.07110E-02  7.07110E-02  1.25000E-02  5.00000E-03
GW     4     1   7.07110E-02  7.07110E-02  1.25000E-02  3.82680E-02  9.23880E-02  1.87500E-02  5.00000E-03
GW     5     1   3.82680E-02  9.23880E-02  1.87500E-02  0.00000E+00  1.00000E-01  2.50000E-02  5.00000E-03
GW     6     1   0.00000E+00  1.00000E-01  2.50000E-02 -3.82680E-02  9.23880E-02  3.12500E-02  5.00000E-03
GW     7     1  -3.82680E-02  9.23880E-02  3.12500E-02 -7.07110E-02  7.07110E-02  3.75000E-02  5.00000E-03
GW     8     1  -7.07110E-02  7.07110E-02  3.75000E-02 -9.23880E-02  3.82680E-02  4.37500E-02  5.00000E-03
GW     9     1  -9.23880E-02  3.82680E-02  4.37500E-02 -1.00000E-01  0.00000E+00  5.00000E-02  5.00000E-03
GW    10     1  -1.00000E-01  0.00000E+00  5.00000E-02 -9.23880E-02 -3.82680E-02  5.62500E-02  5.00000E-03
GW    11     1  -9.23880E-02 -3.82680E-02  5.62500E-02 -7.07110E-02 -7.07110E-02  6.25000E-02  5.00000E-03
GW    12     1  -7.07110E-02 -7.07110E-02  6.25000E-02 -3.82680E-02 -9.23880E-02  6.87500E-02  5.00000E-03
GW    13     1  -3.82680E-02 -9.23880E-02  6.87500E-02  0.00000E+00 -1.00000E-01  7.50000E-02  5.00000E-03
GW    14     1   0.00000E+00 -1.00000E-01  7.50000E-02  3.82680E-02 -9.23880E-02  8.12500E-02  5.00000E-03
GW    15     1   3.82680E-02 -9.23880E-02  8.12500E-02  7.07110E-02 -7.07110E-02  8.75000E-02  5.00000E-03
GW    16     1   7.07110E-02 -7.07110E-02  8.75000E-02  9.23880E-02 -3.82680E-02  9.37500E-02  5.00000E-03
GW    17     1   9.23880E-02 -3.82680E-02  9.37500E-02  1.00000E-01  0.00000E+00  1.00000E-01  5.00000E-03
GW    18     1   1.00000E-01  0.00000E+00  1.00000E-01  9.23880E-02  3.82680E-02  1.06250E-01  5.00000E-03
GW    19     1   9.23880E-02  3.82680E-02  1.06250E-01  7.07110E-02  7.07110E-02  1.12500E-01  5.00000E-03
GW    20     1   7.07110E-02  7.07110E-02  1.12500E-01  3.82680E-02  9.23880E-02  1.18750E-01  5.00000E-03
GW    21     1   3.82680E-02  9.23880E-02  1.18750E-01  0.00000E+00  1.00000E-01  1.25000E-01  5.00000E-03
GW    22     1   0.00000E+00  1.00000E-01  1.25000E-01 -3.82680E-02  9.23880E-02  1.31250E-01  5.00000E-03
GW    23     1  -3.82680E-02  9.23880E-02  1.31250E-01 -7.07110E-02  7.07110E-02  1.37500E-01  5.00000E-03
GW    24     1  -7.07110E-02  7.07110E-02  1.37500E-01 -9.23880E-02  3.82680E-02  1.43750E-01  5.00000E-03
GW    25     1  -9.23880E-02  3.82680E-02  1.43750E-01 -1.00000E-01  0.00000E+00  1.50000E-01  5.00000E-03
GW    26     1  -1.00000E-01  0.00000E+00  1.50000E-01 -9.23880E-02 -3.82680E-02  1.56250E-01  5.00000E-03
GW    27     1  -9.23880E-02 -3.82680E-02  1.56250E-01 -7.07110E-02 -7.07110E-02  1.62500E-01  5.00000E-03
GW    28     1  -7.07110E-02 -7.07110E-02  1.62500E-01 -3.82680E-02 -9.23880E-02  1.68750E-01  5.00000E-03
GW    29     1  -3.82680E-02 -9.23880E-02  1.68750E-01  0.00000E+00 -1.00000E-01  1.75000E-01  5.00000E-03
GW    30     1   0.00000E+00 -1.00000E-01  1.75000E-01  3.82680E-02 -9.23880E-02  1.81250E-01  5.00000E-03
GW    31     1   3.82680E-02 -9.23880E-02  1.81250E-01  7.07110E-02 -7.07110E-02  1.87500E-01  5.00000E-03
GW    32     1   7.07110E-02 -7.07110E-02  1.87500E-01  9.23880E-02 -3.82680E-02  1.93750E-01  5.00000E-03
GW    33     1   9.23880E-02 -3.82680E-02  1.93750E-01  1.00000E-01  0.00000E+00  2.00000E-01  5.00000E-03
GW    34     1   1.00000E-01  0.00000E+00  2.00000E-01  9.23880E-02  3.82680E-02  2.06250E-01  5.00000E-03
GW    35     1   9.23880E-02  3.82680E-02  2.06250E-01  7.07110E-02  7.07110E-02  2.12500E-01  5.00000E-03
GW    36     1   7.07110E-02  7.07110E-02  2.12500E-01  3.82680E-02  9.23880E-02  2.18750E-01  5.00000E-03
GW    37     1   3.82680E-02  9.23880E-02  2.18750E-01  0.00000E+00  1.00000E-01  2.25000E-01  5.00000E-03
GW    38     1   0.00000E+00  1.00000E-01  2.25000E-01 -3.82680E-02  9.23880E-02  2.31250E-01  5.00000E-03
GW    39     1  -3.82680E-02  9.23880E-02  2.31250E-01 -7.07110E-02  7.07110E-02  2.37500E-01  5.00000E-03
GW    40     1  -7.07110E-02  7.07110E-02  2.37500E-01 -9.23880E-02  3.82680E-02  2.43750E-01  5.00000E-03
GW    41     1  -9.23880E-02  3.82680E-02  2.43750E-01 -1.00000E-01  0.00000E+00  2.50000E-01  5.00000E-03
GW    42     1  -1.00000E-01  0.00000E+00  2.50000E-01 -9.23880E-02 -3.82680E-02  2.56250E-01  5.00000E-03
GW    43     1  -9.23880E-02 -3.82680E-02  2.56250E-01 -7.07110E-02 -7.07110E-02  2.62500E-01  5.00000E-03
GW    44     1  -7.07110E-02 -7.07110E-02  2.62500E-01 -3.82680E-02 -9.23880E-02  2.68750E-01  5.00000E-03
GW    45     1  -3.82680E-02 -9.23880E-02  2.68750E-01  0.00000E+00 -1.00000E-01  2.75000E-01  5.00000E-03
GW    46     1   0.00000E+00 -1.00000E-01  2.75000E-01  3.82680E-02 -9.23880E-02  2.81250E-01  5.00000E-03
GW    47     1   3.82680E-02 -9.23880E-02  2.81250E-01  7.07110E-02 -7.07110E-02  2.87500E-01  5.00000E-03
GW    48     1   7.07110E-02 -7.07110E-02  2.87500E-01  9.23880E-02 -3.82680E-02  2.93750E-01  5.00000E-03
GW    49     1   9.23880E-02 -3.82680E-02  2.93750E-01  1.00000E-01  0.00000E+00  3.00000E-01  5.00000E-03
GW    50     1   1.00000E-01  0.00000E+00  3.00000E-01  9.23880E-02  3.82680E-02  3.06250E-01  5.00000E-03
GW    51     1   9.23880E-02  3.82680E-02  3.06250E-01  7.07110E-02  7.07110E-02  3.12500E-01  5.00000E-03
GW    52     1   7.07110E-02  7.07110E-02  3.12500E-01  3.82680E-02  9.23880E-02  3.18750E-01  5.00000E-03
GW    53     1   3.82680E-02  9.23880E-02  3.18750E-01  0.00000E+00  1.00000E-01  3.25000E-01  5.00000E-03
GW    54     1   0.00000E+00  1.00000E-01  3.25000E-01 -3.82680E-02  9.23880E-02  3.31250E-01  5.00000E-03
GW    55     1  -3.82680E-02  9.23880E-02  3.31250E-01 -7.07110E-02  7.07110E-02  3.37500E-01  5.00000E-03
GW    56     1  -7.07110E-02  7.07110E-02  3.37500E-01 -9.23880E-02  3.82680E-02  3.43750E-01  5.00000E-03
GW    57     1  -9.23880E-02  3.82680E-02  3.43750E-01 -1.00000E-01  0.00000E+00  3.50000E-01  5.00000E-03
GW    58     1  -1.00000E-01  0.00000E+00  3.50000E-01 -9.23880E-02 -3.82680E-02  3.56250E-01  5.00000E-03
GW    59     1  -9.23880E-02 -3.82680E-02  3.56250E-01 -7.07110E-02 -7.07110E-02  3.62500E-01  5.00000E-03
GW    60     1  -7.07110E-02 -7.07110E-02  3.62500E-01 -3.82680E-02 -9.23880E-02  3.68750E-01  5.00000E-03
GW    61     1  -3.82680E-02 -9.23880E-02  3.68750E-01  0.00000E+00 -1.00000E-01  3.75000E-01  5.00000E-03
GW    62     1   0.00000E+00 -1.00000E-01  3.75000E-01  3.82680E-02 -9.23880E-02  3.81250E-01  5.00000E-03
GW    63     1   3.82680E-02 -9.23880E-02  3.81250E-01  7.07110E-02 -7.07110E-02  3.87500E-01  5.00000E-03
GW    64     1   7.07110E-02 -7.07110E-02  3.87500E-01  9.23880E-02 -3.82680E-02  3.93750E-01  5.00000E-03
GW    65     1   9.23880E-02 -3.82680E-02  3.93750E-01  1.00000E-01  0.00000E+00  4.00000E-01  5.00000E-03
GW    66     1   1.00000E-01  0.00000E+00  4.00000E-01  9.23880E-02  3.82680E-02  4.06250E-01  5.00000E-03
GW    67     1   9.23880E-02  3.82680E-02  4.06250E-01  7.07110E-02  7.07110E-02  4.12500E-01  5.00000E-03
GW    68     1   7.07110E-02  7.07110E-02  4.12500E-01  3.82680E-02  9.23880E-02  4.18750E-01  5.00000E-03
GW    69     1   3.82680E-02  9.23880E-02  4.18750E-01  0.00000E+00  1.00000E-01  4.25000E-01  5.00000E-03
GW    70     1   0.00000E+00  1.00000E-01  4.25000E-01 -3.82680E-02  9.23880E-02  4.31250E-01  5.00000E-03
GW    71     1  -3.82680E-02  9.23880E-02  4.31250E-01 -7.07110E-02  7.07110E-02  4.37500E-01  5.00000E-03
GW    72     1  -7.07110E-02  7.07110E-02  4.37500E-01 -9.23880E-02  3.82680E-02  4.43750E-01  5.00000E-03
GW    73     1  -9.23880E-02  3.82680E-02  4.43750E-01 -1.00000E-01  0.00000E+00  4.50000E-01  5.00000E-03
GW    74     1  -1.00000E-01  0.00000E+00  4.50000E-01 -9.23880E-02 -3.82680E-02  4.56250E-01  5.00000E-03
GW    75     1  -9.23880E-02 -3.82680E-02  4.56250E-01 -7.07110E-02 -7.07110E-02  4.62500E-01  5.00000E-03
GW    76     1  -7.07110E-02 -7.07110E-02  4.62500E-01 -3.82680E-02 -9.23880E-02  4.68750E-01  5.00000E-03
GW    77     1  -3.82680E-02 -9.23880E-02  4.68750E-01  0.00000E+00 -1.00000E-01  4.75000E-01  5.00000E-03
GW    78     1   0.00000E+00 -1.00000E-01  4.75000E-01  3.82680E-02 -9.23880E-02  4.81250E-01  5.00000E-03
GW    79     1   3.82680E-02 -9.23880E-02  4.81250E-01  7.07110E-02 -7.07110E-02  4.87500E-01  5.00000E-03
GW    80     1   7.07110E-02 -7.07110E-02  4.87500E-01  9.23880E-02 -3.82680E-02  4.93750E-01  5.00000E-03
GW    81     1   9.23880E-02 -3.82680E-02  4.93750E-01  1.00000E-01  0.00000E+00  5.00000E-01  5.00000E-03
GW    82     1   1.00000E-01  0.00000E+00  5.00000E-01  9.23880E-02  3.82680E-02  5.06250E-01  5.00000E-03
GW    83     1   9.23880E-02  3.82680E-02  5.06250E-01  7.07110E-02  7.07110E-02  5.12500E-01  5.00000E-03
GW    84     1   7.07110E-02  7.07110E-02  5.12500E-01  3.82680E-02  9.23880E-02  5.18750E-01  5.00000E-03
GW    85     1   3.82680E-02  9.23880E-02  5.18750E-01  0.00000E+00  1.00000E-01  5.25000E-01  5.00000E-03
GW    86     1   0.00000E+00  1.00000E-01  5.25000E-01 -3.82680E-02  9.23880E-02  5.31250E-01  5.00000E-03
GW    87     1  -3.82680E-02  9.23880E-02  5.31250E-01 -7.07110E-02  7.07110E-02  5.37500E-01  5.00000E-03
GW    88     1  -7.07110E-02  7.07110E-02  5.37500E-01 -9.23880E-02  3.82680E-02  5.43750E-01  5.00000E-03
GW    89     1  -9.23880E-02  3.82680E-02  5.43750E-01 -1.00000E-01  0.00000E+00  5.50000E-01  5.00000E-03
GW    90     1  -1.00000E-01  0.00000E+00  5.50000E-01 -9.23880E-02 -3.82680E-02  5.56250E-01  5.00000E-03
GW    91     1  -9.23880E-02 -3.82680E-02  5.56250E-01 -7.07110E-02 -7.07110E-02  5.62500E-01  5.00000E-03
GW    92     1  -7.07110E-02 -7.07110E-02  5.62500E-01 -3.82680E-02 -9.23880E-02  5.68750E-01  5.00000E-03
GW    93     1  -3.82680E-02 -9.23880E-02  5.68750E-01  0.00000E+00 -1.00000E-01  5.75000E-01  5.00000E-03
GW    94     1   0.00000E+00 -1.00000E-01  5.75000E-01  3.82680E-02 -9.23880E-02  5.81250E-01  5.00000E-03
GW    95     1   3.82680E-02 -9.23880E-02  5.81250E-01  7.07110E-02 -7.07110E-02  5.87500E-01  5.00000E-03
GW    96     1   7.07110E-02 -7.07110E-02  5.87500E-01  9.23880E-02 -3.82680E-02  5.93750E-01  5.00000E-03
GW    97     1   9.23880E-02 -3.82680E-02  5.93750E-01  1.00000E-01  0.00000E+00  6.00000E-01  5.00000E-03
GW    98     1   1.00000E-01  0.00000E+00  6.00000E-01  9.23880E-02  3.82680E-02  6.06250E-01  5.00000E-03
GW    99     1   9.23880E-02  3.82680E-02  6.06250E-01  7.07110E-02  7.07110E-02  6.12500E-01  5.00000E-03
GW   100     1   7.07110E-02  7.07110E-02  6.12500E-01  3.82680E-02  9.23880E-02  6.18750E-01  5.00000E-03
GW   101     1   3.82680E-02  9.23880E-02  6.18750E-01  0.00000E+00  1.00000E-01  6.25000E-01  5.00000E-03
GW   102     1   0.00000E+00  1.00000E-01  6.25000E-01 -3.82680E-02  9.23880E-02  6.31250E-01  5.00000E-03
GW   103     1  -3.82680E-02  9.23880E-02  6.31250E-01 -7.07110E-02  7.07110E-02  6.37500E-01  5.00000E-03
GW   104     1  -7.07110E-02  7.07110E-02  6.37500E-01 -9.23880E-02  3.82680E-02  6.43750E-01  5.00000E-03
GW   105     1  -9.23880E-02  3.82680E-02  6.43750E-01 -1.00000E-01  0.00000E+00  6.50000E-01  5.00000E-03
GW   106     1  -1.00000E-01  0.00000E+00  6.50000E-01 -9.23880E-02 -3.82680E-02  6.56250E-01  5.00000E-03
GW   107     1  -9.23880E-02 -3.82680E-02  6.56250E-01 -7.07110E-02 -7.07110E-02  6.62500E-01  5.00000E-03
GW   108     1  -7.07110E-02 -7.07110E-02  6.62500E-01 -3.82680E-02 -9.23880E-02  6.68750E-01  5.00000E-03
GW   109     1  -3.82680E-02 -9.23880E-02  6.68750E-01  0.00000E+00 -1.00000E-01  6.75000E-01  5.00000E-03
GW   110     1   0.00000E+00 -1.00000E-01  6.75000E-01  3.82680E-02 -9.23880E-02  6.81250E-01  5.00000E-03
GW   111     1   3.82680E-02 -9.23880E-02  6.81250E-01  7.07110E-02 -7.07110E-02  6.87500E-01  5.00000E-03
GW   112     1   7.07110E-02 -7.07110E-02  6.87500E-01  9.23880E-02 -3.82680E-02  6.93750E-01  5.00000E-03
GW   113     1   9.23880E-02 -3.82680E-02  6.93750E-01  1.00000E-01  0.00000E+00  7.00000E-01  5.00000E-03
GW   114     1   1.00000E-01  0.00000E+00  7.00000E-01  9.23880E-02  3.82680E-02  7.06250E-01  5.00000E-03
GW   115     1   9.23880E-02  3.82680E-02  7.06250E-01  7.07110E-02  7.07110E-02  7.12500E-01  5.00000E-03
GW   116     1   7.07110E-02  7.07110E-02  7.12500E-01  3.82680E-02  9.23880E-02  7.18750E-01  5.00000E-03
GW   117     1   3.82680E-02  9.23880E-02  7.18750E-01  0.00000E+00  1.00000E-01  7.25000E-01  5.00000E-03
GW   118     1   0.00000E+00  1.00000E-01  7.25000E-01 -3.82680E-02  9.23880E-02  7.31250E-01  5.00000E-03
GW   119     1  -3.82680E-02  9.23880E-02  7.31250E-01 -7.07110E-02  7.07110E-02  7.37500E-01  5.00000E-03
GW   120     1  -7.07110E-02  7.07110E-02  7.37500E-01 -9.23880E-02  3.82680E-02  7.43750E-01  5.00000E-03
GW   121     1  -9.23880E-02  3.82680E-02  7.43750E-01 -1.00000E-01  0.00000E+00  7.50000E-01  5.00000E-03
GW   122     1  -1.00000E-01  0.00000E+00  7.50000E-01 -9.23880E-02 -3.82680E-02  7.56250E-01  5.00000E-03
GW   123     1  -9.23880E-02 -3.82680E-02  7.56250E-01 -7.07110E-02 -7.07110E-02  7.62500E-01  5.00000E-03
GW   124     1  -7.07110E-02 -7.07110E-02  7.62500E-01 -3.82680E-02 -9.23880E-02  7.68750E-01  5.00000E-03
GW   125     1  -3.82680E-02 -9.23880E-02  7.68750E-01  0.00000E+00 -1.00000E-01  7.75000E-01  5.00000E-03
GW   126     1   0.00000E+00 -1.00000E-01  7.75000E-01  3.82680E-02 -9.23880E-02  7.81250E-01  5.00000E-03
GW   127     1   3.82680E-02 -9.23880E-02  7.81250E-01  7.07110E-02 -7.07110E-02  7.87500E-01  5.00000E-03
GW   128     1   7.07110E-02 -7.07110E-02  7.87500E-01  9.23880E-02 -3.82680E-02  7.93750E-01  5.00000E-03
GW   129     1   9.23880E-02 -3.82680E-02  7.93750E-01  1.00000E-01  0.00000E+00  8.00000E-01  5.00000E-03
GW   130     1   1.00000E-01  0.00000E+00  8.00000E-01  9.23880E-02  3.82680E-02  8.06250E-01  5.00000E-03
GW   131     1   9.23880E-02  3.82680E-02  8.06250E-01  7.07110E-02  7.07110E-02  8.12500E-01  5.00000E-03
GW   132     1   7.07110E-02  7.07110E-02  8.12500E-01  3.82680E-02  9.23880E-02  8.18750E-01  5.00000E-03
GW   133     1   3.82680E-02  9.23880E-02  8.18750E-01  0.00000E+00  1.00000E-01  8.25000E-01  5.00000E-03
GW   134     1   0.00000E+00  1.00000E-01  8.25000E-01 -3.82680E-02  9.23880E-02  8.31250E-01  5.00000E-03
GW   135     1  -3.82680E-02  9.23880E-02  8.31250E-01 -7.07110E-02  7.07110E-02  8.37500E-01  5.00000E-03
GW   136     1  -7.07110E-02  7.07110E-02  8.37500E-01 -9.23880E-02  3.82680E-02  8.43750E-01  5.00000E-03
GW   137     1  -9.23880E-02  3.82680E-02  8.43750E-01 -1.00000E-01  0.00000E+00  8.50000E-01  5.00000E-03
GW   138     1  -1.00000E-01  0.00000E+00  8.50000E-01 -9.23880E-02 -3.82680E-02  8.56250E-01  5.00000E-03
GW   139     1  -9.23880E-02 -3.82680E-02  8.56250E-01 -7.07110E-02 -7.07110E-02  8.62500E-01  5.00000E-03
GW   140     1  -7.07110E-02 -7.07110E-02  8.62500E-01 -3.82680E-02 -9.23880E-02  8.68750E-01  5.00000E-03
GW   141     1  -3.82680E-02 -9.23880E-02  8.68750E-01  0.00000E+00 -1.00000E-01  8.75000E-01  5.00000E-03
GW   142     1   0.00000E+00 -1.00000E-01  8.75000E-01  3.82680E-02 -9.23880E-02  8.81250E-01  5.00000E-03
GW   143     1   3.82680E-02 -9.23880E-02  8.81250E-01  7.07110E-02 -7.07110E-02  8.87500E-01  5.00000E-03
GW   144     1   7.07110E-02 -7.07110E-02  8.87500E-01  9.23880E-02 -3.82680E-02  8.93750E-01  5.00000E-03
GW   145     1   9.23880E-02 -3.82680E-02  8.93750E-01  1.00000E-01  0.00000E+00  9.00000E-01  5.00000E-03
GW   146     1   1.00000E-01  0.00000E+00  9.00000E-01  9.23880E-02  3.82680E-02  9.06250E-01  5.00000E-03
GW   147     1   9.23880E-02  3.82680E-02  9.06250E-01  7.07110E-02  7.07110E-02  9.12500E-01  5.00000E-03
GW   148     1   7.07110E-02  7.07110E-02  9.12500E-01  3.82680E-02  9.23880E-02  9.18750E-01  5.00000E-03
GW   149     1   3.82680E-02  9.23880E-02  9.18750E-01  0.00000E+00  1.00000E-01  9.25000E-01  5.00000E-03
GW   150     1   0.00000E+00  1.00000E-01  9.25000E-01 -3.82680E-02  9.23880E-02  9.31250E-01  5.00000E-03
GW   151     1  -3.82680E-02  9.23880E-02  9.31250E-01 -7.07110E-02  7.07110E-02  9.37500E-01  5.00000E-03
GW   152     1  -7.07110E-02  7.07110E-02  9.37500E-01 -9.23880E-02  3.82680E-02  9.43750E-01  5.00000E-03
GW   153     1  -9.23880E-02  3.82680E-02  9.43750E-01 -1.00000E-01  0.00000E+00  9.50000E-01  5.00000E-03
GW   154     1  -1.00000E-01  0.00000E+00  9.50000E-01 -9.23880E-02 -3.82680E-02  9.56250E-01  5.00000E-03
GW   155     1  -9.23880E-02 -3.82680E-02  9.56250E-01 -7.07110E-02 -7.07110E-02  9.62500E-01  5.00000E-03
GW   156     1  -7.07110E-02 -7.07110E-02  9.62500E-01 -3.82680E-02 -9.23880E-02  9.68750E-01  5.00000E-03
GW   157     1  -3.82680E-02 -9.23880E-02  9.68750E-01  0.00000E+00 -1.00000E-01  9.75000E-01  5.00000E-03
GW   158     1   0.00000E+00 -1.00000E-01  9.75000E-01  3.82680E-02 -9.23880E-02  9.81250E-01  5.00000E-03
GW   159     1   3.82680E-02 -9.23880E-02  9.81250E-01  7.07110E-02 -7.07110E-02  9.87500E-01  5.00000E-03
GW   160     1   7.07110E-02 -7.07110E-02  9.87500E-01  9.23880E-02 -3.82680E-02  9.93750E-01  5.00000E-03
GW   161     1   9.23880E-02 -3.82680E-02  9.93750E-01  1.00000E-01  0.00000E+00  1.00000E+00  5.00000E-03
GW   162     1   1.00000E-01  0.00000E+00  1.00000E+00  9.23880E-02  3.82680E-02  1.00600E+00  5.00000E-03
GW   163     1   9.23880E-02  3.82680E-02  1.00600E+00  7.07110E-02  7.07110E-02  1.01300E+00  5.00000E-03
GW   164     1   7.07110E-02  7.07110E-02  1.01300E+00  3.82680E-02  9.23880E-02  1.01900E+00  5.00000E-03
GW   165     1   3.82680E-02  9.23880E-02  1.01900E+00  0.00000E+00  1.00000E-01  1.02500E+00  5.00000E-03
GW   166     1   0.00000E+00  1.00000E-01  1.02500E+00 -3.82680E-02  9.23880E-02  1.03100E+00  5.00000E-03
GW   167     1  -3.82680E-02  9.23880E-02  1.03100E+00 -7.07110E-02  7.07110E-02  1.03800E+00  5.00000E-03
GW   168     1  -7.07110E-02  7.07110E-02  1.03800E+00 -9.23880E-02  3.82680E-02  1.04400E+00  5.00000E-03
GW   169     1  -9.23880E-02  3.82680E-02  1.04400E+00 -1.00000E-01  0.00000E+00  1.05000E+00  5.00000E-03
GW   170     1  -1.00000E-01  0.00000E+00  1.05000E+00 -9.23880E-02 -3.82680E-02  1.05600E+00  5.00000E-03
GW   171     1  -9.23880E-02 -3.82680E-02  1.05600E+00 -7.07110E-02 -7.07110E-02  1.06300E+00  5.00000E-03
GW   172     1  -7.07110E-02 -7.07110E-02  1.06300E+00 -3.82680E-02 -9.23880E-02  1.06900E+00  5.00000E-03
GW   173     1  -3.82680E-02 -9.23880E-02  1.06900E+00  0.00000E+00 -1.00000E-01  1.07500E+00  5.00000E-03
GW   174     1   0.00000E+00 -1.00000E-01  1.07500E+00  3.82680E-02 -9.23880E-02  1.08100E+00  5.00000E-03
GW   175     1   3.82680E-02 -9.23880E-02  1.08100E+00  7.07110E-02 -7.07110E-02  1.08800E+00  5.00000E-03
GW   176     1   7.07110E-02 -7.07110E-02  1.08800E+00  9.23880E-02 -3.82680E-02  1.09400E+00  5.00000E-03
GW   177     1   9.23880E-02 -3.82680E-02  1.09400E+00  1.00000E-01  0.00000E+00  1.10000E+00  5.00000E-03
GW   178     1   1.00000E-01  0.00000E+00  1.10000E+00  9.23880E-02  3.82680E-02  1.10600E+00  5.00000E-03
GW   179     1   9.23880E-02  3.82680E-02  1.10600E+00  7.07110E-02  7.07110E-02  1.11300E+00  5.00000E-03
GW   180     1   7.07110E-02  7.07110E-02  1.11300E+00  3.82680E-02  9.23880E-02  1.11900E+00  5.00000E-03
GW   181     1   3.82680E-02  9.23880E-02  1.11900E+00  0.00000E+00  1.00000E-01  1.12500E+00  5.00000E-03
GW   182     1   0.00000E+00  1.00000E-01  1.12500E+00 -3.82680E-02  9.23880E-02  1.13100E+00  5.00000E-03
GW   183     1  -3.82680E-02  9.23880E-02  1.13100E+00 -7.07110E-02  7.07110E-02  1.13800E+00  5.00000E-03
GW   184     1  -7.07110E-02  7.07110E-02  1.13800E+00 -9.23880E-02  3.82680E-02  1.14400E+00  5.00000E-03
GW   185     1  -9.23880E-02  3.82680E-02  1.14400E+00 -1.00000E-01  0.00000E+00  1.15000E+00  5.00000E-03
GW   186     1  -1.00000E-01  0.00000E+00  1.15000E+00 -9.23880E-02 -3.82680E-02  1.15600E+00  5.00000E-03
GW   187     1  -9.23880E-02 -3.82680E-02  1.15600E+00 -7.07110E-02 -7.07110E-02  1.16300E+00  5.00000E-03
GW   188     1  -7.07110E-02 -7.07110E-02  1.16300E+00 -3.82680E-02 -9.23880E-02  1.16900E+00  5.00000E-03
GW   189     1  -3.82680E-02 -9.23880E-02  1.16900E+00  0.00000E+00 -1.00000E-01  1.17500E+00  5.00000E-03
GW   190     1   0.00000E+00 -1.00000E-01  1.17500E+00  3.82680E-02 -9.23880E-02  1.18100E+00  5.00000E-03
GW   191     1   3.82680E-02 -9.23880E-02  1.18100E+00  7.07110E-02 -7.07110E-02  1.18800E+00  5.00000E-03
GW   192     1   7.07110E-02 -7.07110E-02  1.18800E+00  9.23880E-02 -3.82680E-02  1.19400E+00  5.00000E-03
GW   193     1   9.23880E-02 -3.82680E-02  1.19400E+00  1.00000E-01  0.00000E+00  1.20000E+00  5.00000E-03
GW   194     1   1.00000E-01  0.00000E+00  1.20000E+00  9.23880E-02  3.82680E-02  1.20600E+00  5.00000E-03
GW   195     1   9.23880E-02  3.82680E-02  1.20600E+00  7.07110E-02  7.07110E-02  1.21300E+00  5.00000E-03
GW   196     1   7.07110E-02  7.07110E-02  1.21300E+00  3.82680E-02  9.23880E-02  1.21900E+00  5.00000E-03
GW   197     1   3.82680E-02  9.23880E-02  1.21900E+00  0.00000E+00  1.00000E-01  1.22500E+00  5.00000E-03
GW   198     1   0.00000E+00  1.00000E-01  1.22500E+00 -3.82680E-02  9.23880E-02  1.23100E+00  5.00000E-03
GW   199     1  -3.82680E-02  9.23880E-02  1.23100E+00 -7.07110E-02  7.07110E-02  1.23800E+00  5.00000E-03
GW   200     1  -7.07110E-02  7.07110E-02  1.23800E+00 -9.23880E-02  3.82680E-02  1.24400E+00  5.00000E-03
GW   201     1  -9.23880E-02  3.82680E-02  1.24400E+00 -1.00000E-01  0.00000E+00  1.25000E+00  5.00000E-03
GW   202     1  -1.00000E-01  0.00000E+00  1.25000E+00 -9.23880E-02 -3.82680E-02  1.25600E+00  5.00000E-03
GW   203     1  -9.23880E-02 -3.82680E-02  1.25600E+00 -7.07110E-02 -7.07110E-02  1.26300E+00  5.00000E-03
GW   204     1  -7.07110E-02 -7.07110E-02  1.26300E+00 -3.82680E-02 -9.23880E-02  1.26900E+00  5.00000E-03
GW   205     1  -3.82680E-02 -9.23880E-02  1.26900E+00  0.00000E+00 -1.00000E-01  1.27500E+00  5.00000E-03
GW   206     1   0.00000E+00 -1.00000E-01  1.27500E+00  3.82680E-02 -9.23880E-02  1.28100E+00  5.00000E-03
GW   207     1   3.82680E-02 -9.23880E-02  1.28100E+00  7.07110E-02 -7.07110E-02  1.28800E+00  5.00000E-03
GW   208     1   7.07110E-02 -7.07110E-02  1.28800E+00  9.23880E-02 -3.82680E-02  1.29400E+00  5.00000E-03
GW   209     1   9.23880E-02 -3.82680E-02  1.29400E+00  1.00000E-01  0.00000E+00  1.30000E+00  5.00000E-03
GW   210     1   1.00000E-01  0.00000E+00  1.30000E+00  9.23880E-02  3.82680E-02  1.30600E+00  5.00000E-03
GW   211     1   9.23880E-02  3.82680E-02  1.30600E+00  7.07110E-02  7.07110E-02  1.31300E+00  5.00000E-03
GW   212     1   7.07110E-02  7.07110E-02  1.31300E+00  3.82680E-02  9.23880E-02  1.31900E+00  5.00000E-03
GW   213     1   3.82680E-02  9.23880E-02  1.31900E+00  0.00000E+00  1.00000E-01  1.32500E+00  5.00000E-03
GW   214     1   0.00000E+00  1.00000E-01  1.32500E+00 -3.82680E-02  9.23880E-02  1.33100E+00  5.00000E-03
GW   215     1  -3.82680E-02  9.23880E-02  1.33100E+00 -7.07110E-02  7.07110E-02  1.33800E+00  5.00000E-03
GW   216     1  -7.07110E-02  7.07110E-02  1.33800E+00 -9.23880E-02  3.82680E-02  1.34400E+00  5.00000E-03
GW   217     1  -9.23880E-02  3.82680E-02  1.34400E+00 -1.00000E-01  0.00000E+00  1.35000E+00  5.00000E-03
GW   218     1  -1.00000E-01  0.00000E+00  1.35000E+00 -9.23880E-02 -3.82680E-02  1.35600E+00  5.00000E-03
GW   219     1  -9.23880E-02 -3.82680E-02  1.35600E+00 -7.07110E-02 -7.07110E-02  1.36300E+00  5.00000E-03
GW   220     1  -7.07110E-02 -7.07110E-02  1.36300E+00 -3.82680E-02 -9.23880E-02  1.36900E+00  5.00000E-03
GW   221     1  -3.82680E-02 -9.23880E-02  1.36900E+00  0.00000E+00 -1.00000E-01  1.37500E+00  5.00000E-03
GW   222     1   0.00000E+00 -1.00000E-01  1.37500E+00  3.82680E-02 -9.23880E-02  1.38100E+00  5.00000E-03
GW   223     1   3.82680E-02 -9.23880E-02  1.38100E+00  7.07110E-02 -7.07110E-02  1.38800E+00  5.00000E-03
GW   224     1   7.07110E-02 -7.07110E-02  1.38800E+00  9.23880E-02 -3.82680E-02  1.39400E+00  5.00000E-03
GW   225     1   9.23880E-02 -3.82680E-02  1.39400E+00  1.00000E-01  0.00000E+00  1.40000E+00  5.00000E-03
GW   226     1   1.00000E-01  0.00000E+00  1.40000E+00  9.23880E-02  3.82680E-02  1.40600E+00  5.00000E-03
GW   227     1   9.23880E-02  3.82680E-02  1.40600E+00  7.07110E-02  7.07110E-02  1.41300E+00  5.00000E-03
GW   228     1   7.07110E-02  7.07110E-02  1.41300E+00  3.82680E-02  9.23880E-02  1.41900E+00  5.00000E-03
GW   229     1   3.82680E-02  9.23880E-02  1.41900E+00  0.00000E+00  1.00000E-01  1.42500E+00  5.00000E-03
GW   230     1   0.00000E+00  1.00000E-01  1.42500E+00 -3.82680E-02  9.23880E-02  1.43100E+00  5.00000E-03
GW   231     1  -3.82680E-02  9.23880E-02  1.43100E+00 -7.07110E-02  7.07110E-02  1.43800E+00  5.00000E-03
GW   232     1  -7.07110E-02  7.07110E-02  1.43800E+00 -9.23880E-02  3.82680E-02  1.44400E+00  5.00000E-03
GW   233     1  -9.23880E-02  3.82680E-02  1.44400E+00 -1.00000E-01  0.00000E+00  1.45000E+00  5.00000E-03
GW   234     1  -1.00000E-01  0.00000E+00  1.45000E+00 -9.23880E-02 -3.82680E-02  1.45600E+00  5.00000E-03
GW   235     1  -9.23880E-02 -3.82680E-02  1.45600E+00 -7.07110E-02 -7.07110E-02  1.46300E+00  5.00000E-03
GW   236     1  -7.07110E-02 -7.07110E-02  1.46300E+00 -3.82680E-02 -9.23880E-02  1.46900E+00  5.00000E-03
GW   237     1  -3.82680E-02 -9.23880E-02  1.46900E+00  0.00000E+00 -1.00000E-01  1.47500E+00  5.00000E-03
GW   238     1   0.00000E+00 -1.00000E-01  1.47500E+00  3.82680E-02 -9.23880E-02  1.48100E+00  5.00000E-03
GW   239     1   3.82680E-02 -9.23880E-02  1.48100E+00  7.07110E-02 -7.07110E-02  1.48800E+00  5.00000E-03
GW   240     1   7.07110E-02 -7.07110E-02  1.48800E+00  9.23880E-02 -3.82680E-02  1.49400E+00  5.00000E-03
GW   241     1   9.23880E-02 -3.82680E-02  1.49400E+00  1.00000E-01  0.00000E+00  1.50000E+00  5.00000E-03
GW   242     1   1.00000E-01  0.00000E+00  1.50000E+00  9.23880E-02  3.82680E-02  1.50600E+00  5.00000E-03
GW   243     1   9.23880E-02  3.82680E-02  1.50600E+00  7.07110E-02  7.07110E-02  1.51300E+00  5.00000E-03
GW   244     1   7.07110E-02  7.07110E-02  1.51300E+00  3.82680E-02  9.23880E-02  1.51900E+00  5.00000E-03
GW   245     1   3.82680E-02  9.23880E-02  1.51900E+00  0.00000E+00  1.00000E-01  1.52500E+00  5.00000E-03
GW   246     1   0.00000E+00  1.00000E-01  1.52500E+00 -3.82680E-02  9.23880E-02  1.53100E+00  5.00000E-03
GW   247     1  -3.82680E-02  9.23880E-02  1.53100E+00 -7.07110E-02  7.07110E-02  1.53800E+00  5.00000E-03
GW   248     1  -7.07110E-02  7.07110E-02  1.53800E+00 -9.23880E-02  3.82680E-02  1.54400E+00  5.00000E-03
GW   249     1  -9.23880E-02  3.82680E-02  1.54400E+00 -1.00000E-01  0.00000E+00  1.55000E+00  5.00000E-03
GW   250     1  -1.00000E-01  0.00000E+00  1.55000E+00 -9.23880E-02 -3.82680E-02  1.55600E+00  5.00000E-03
GW   251     1  -9.23880E-02 -3.82680E-02  1.55600E+00 -7.07110E-02 -7.07110E-02  1.56300E+00  5.00000E-03
GW   252     1  -7.07110E-02 -7.07110E-02  1.56300E+00 -3.82680E-02 -9.23880E-02  1.56900E+00  5.00000E-03
GW   253     1  -3.82680E-02 -9.23880E-02  1.56900E+00  0.00000E+00 -1.00000E-01  1.57500E+00  5.00000E-03
GW   254     1   0.00000E+00 -1.00000E-01  1.57500E+00  3.82680E-02 -9.23880E-02  1.58100E+00  5.00000E-03
GW   255     1   3.82680E-02 -9.23880E-02  1.58100E+00  7.07110E-02 -7.07110E-02  1.58800E+00  5.00000E-03
GW   256     1   7.07110E-02 -7.07110E-02  1.58800E+00  9.23880E-02 -3.82680E-02  1.59400E+00  5.00000E-03
GW   257     1   9.23880E-02 -3.82680E-02  1.59400E+00  1.00000E-01  0.00000E+00  1.60000E+00  5.00000E-03
GW   258     1   1.00000E-01  0.00000E+00  1.60000E+00  9.23880E-02  3.82680E-02  1.60600E+00  5.00000E-03
GW   259     1   9.23880E-02  3.82680E-02  1.60600E+00  7.07110E-02  7.07110E-02  1.61300E+00  5.00000E-03
GW   260     1   7.07110E-02  7.07110E-02  1.61300E+00  3.82680E-02  9.23880E-02  1.61900E+00  5.00000E-03
GW   261     1   3.82680E-02  9.23880E-02  1.61900E+00  0.00000E+00  1.00000E-01  1.62500E+00  5.00000E-03
GW   262     1   0.00000E+00  1.00000E-01  1.62500E+00 -3.82680E-02  9.23880E-02  1.63100E+00  5.00000E-03
GW   263     1  -3.82680E-02  9.23880E-02  1.63100E+00 -7.07110E-02  7.07110E-02  1.63800E+00  5.00000E-03
GW   264     1  -7.07110E-02  7.07110E-02  1.63800E+00 -9.23880E-02  3.82680E-02  1.64400E+00  5.00000E-03
GW   265     1  -9.23880E-02  3.82680E-02  1.64400E+00 -1.00000E-01  0.00000E+00  1.65000E+00  5.00000E-03
GW   266     1  -1.00000E-01  0.00000E+00  1.65000E+00 -9.23880E-02 -3.82680E-02  1.65600E+00  5.00000E-03
GW   267     1  -9.23880E-02 -3.82680E-02  1.65600E+00 -7.07110E-02 -7.07110E-02  1.66300E+00  5.00000E-03
GW   268     1  -7.07110E-02 -7.07110E-02  1.66300E+00 -3.82680E-02 -9.23880E-02  1.66900E+00  5.00000E-03
GW   269     1  -3.82680E-02 -9.23880E-02  1.66900E+00  0.00000E+00 -1.00000E-01  1.67500E+00  5.00000E-03
GW   270     1   0.00000E+00 -1.00000E-01  1.67500E+00  3.82680E-02 -9.23880E-02  1.68100E+00  5.00000E-03
GW   271     1   3.82680E-02 -9.23880E-02  1.68100E+00  7.07110E-02 -7.07110E-02  1.68800E+00  5.00000E-03
GW   272     1   7.07110E-02 -7.07110E-02  1.68800E+00  9.23880E-02 -3.82680E-02  1.69400E+00  5.00000E-03
GW   273     1   9.23880E-02 -3.82680E-02  1.69400E+00  1.00000E-01  0.00000E+00  1.70000E+00  5.00000E-03
GW   274     1   1.00000E-01  0.00000E+00  1.70000E+00  9.23880E-02  3.82680E-02  1.70600E+00  5.00000E-03
GW   275     1   9.23880E-02  3.82680E-02  1.70600E+00  7.07110E-02  7.07110E-02  1.71300E+00  5.00000E-03
GW   276     1   7.07110E-02  7.07110E-02  1.71300E+00  3.82680E-02  9.23880E-02  1.71900E+00  5.00000E-03
GW   277     1   3.82680E-02  9.23880E-02  1.71900E+00  0.00000E+00  1.00000E-01  1.72500E+00  5.00000E-03
GW   278     1   0.00000E+00  1.00000E-01  1.72500E+00 -3.82680E-02  9.23880E-02  1.73100E+00  5.00000E-03