GW     1     8  0.00000E+00  0.00000E+00  0.00000E+00  0.00000E+00  0.00000E+00  1.70000E+01  1.00000E-03
GE     1
FR     0     0     0     0  4.33000E+02  0.00000E+00
EX     0     1     1     0  1.00000E+00  0.00000E+00
RP     0    10    21     0  0.00000E+00  0.00000E+00  1.00000E+01  1.80000E+01
